[General]
cmdenv-express-mode = true
cmdenv-autoflush = true
cmdenv-status-frequency = 1s
**.cmdenv-log-level = info

ned-path = .
image-path = ../../images

network = OffloadOptimization

##########################################################
#            Simulation parameters                       #
##########################################################
debug-on-errors = true
print-undisposed = true

sim-time-limit = 2000s

**.scalar-recording = true
**.vector-recording = true

*.playgroundSizeX = 15000m
*.playgroundSizeY = 15000m
*.playgroundSizeZ = 50m


##########################################################
# Annotation parameters                                  #
##########################################################
*.annotations.draw = true

##########################################################
# Obstacle parameters                                    #
##########################################################
*.obstacles.obstacles = xmldoc("config.xml", "//AnalogueModel[@type='SimpleObstacleShadowing']/obstacles")

##########################################################
#            TraCIScenarioManager parameters             #
##########################################################
#*.manager.updateInterval = 0.1s
*.manager.host = "localhost"
*.manager.port = 9999
*.manager.autoShutdown = true
*.manager.launchConfig = xmldoc("dua.static.launchd.xml")
*.manager.moduleType="org.car2x.veins.modules.EdgeComputing.CarNodeSafe"
*.manager.firstStepAt = 0s 
#*.manager.roiRects = "4000,6000-7000,8000"
*.manager.roiRects = "4900,5200-8150,7500 8600,7900-11500,10100"

##########################################################
#                       RSU SETTINGS                     #
#                                                        #
#                                                        #
##########################################################
## Note :    X axis is the same with Veins and SUMO
 #           Y axis have the summation of about 11511.4



*.RSU[5].mobility.x = 11000
*.RSU[5].mobility.y = 7223.09-5300

*.RSU[1].mobility.x = 6482.26
*.RSU[1].mobility.y = 4670

*.RSU[2].mobility.x = 5528.53
*.RSU[2].mobility.y = 4990

*.RSU[3].mobility.x = 6395
*.RSU[3].mobility.y = 5745

*.RSU[4].mobility.x = 7405
*.RSU[4].mobility.y = 5585

*.RSU[0].mobility.x = 7637
*.RSU[0].mobility.y = 4490
*.RSU[0].appl.x = 7637
*.RSU[0].appl.y = 4490

*.RSU[6].mobility.x = 10132
*.RSU[6].mobility.y = 2463
*.RSU[6].appl.x = 10132
*.RSU[6].appl.y = 2463

*.RSU[7].mobility.x = 9255
*.RSU[7].mobility.y = 3003
*.RSU[7].appl.x = 9255
*.RSU[7].appl.y = 3003


*.RSU[*].mobility.z = 40


*.RSU[5].appl.x = 11000
*.RSU[5].appl.y = 7223.09-5300

*.RSU[1].appl.x = 6482.26
*.RSU[1].appl.y = 4670

*.RSU[2].appl.x = 5528.53
*.RSU[2].appl.y = 4990

*.RSU[3].appl.x = 6395
*.RSU[3].appl.y = 5745

*.RSU[4].appl.x = 7405
*.RSU[4].appl.y = 5585
*.RSU[*].appl.z = 40



#*.RSU[*].applType = "MyVeinsApp"
*.RSU[*].appl.appName = "Computing App"
*.RSU[*].appl.headerLength = 80 bit
*.RSU[*].appl.sendBeacons = false
*.RSU[*].appl.dataOnSch = false
*.RSU[*].appl.beaconInterval = 1s
*.RSU[*].appl.beaconLengthBits = 128 bit
*.RSU[*].appl.beaconUserPriority = 7
*.RSU[*].appl.dataUserPriority = 5
*.RSU[*].nic.phy80211p.antennaOffsetZ = 0 m

*.SdnController.offloadMode = 1     ### SWPT_multi (0,true) ;  NSO(1,false);   NO(2,true)
*.RSU[*].appl.schedSWPT = false
##########################################################
#            11p specific parameters                     #
#                                                        #
#                    NIC-Settings                        #
##########################################################
*.connectionManager.sendDirect = true
*.connectionManager.maxInterfDist = 500m
*.connectionManager.drawMaxIntfDist = true

*.**.nic.mac1609_4.useServiceChannel = false

*.**.nic.mac1609_4.txPower = 60mW
*.**.nic.mac1609_4.bitrate = 6Mbps
*.**.nic.phy80211p.minPowerLevel = -110dBm

*.**.nic.phy80211p.useNoiseFloor = true
*.**.nic.phy80211p.noiseFloor = -98dBm

*.**.nic.phy80211p.decider = xmldoc("config.xml")
*.**.nic.phy80211p.analogueModels = xmldoc("config.xml")
*.**.nic.phy80211p.usePropagationDelay = true

*.**.nic.phy80211p.antenna = xmldoc("antenna.xml", "/root/Antenna[@id='monopole']")
*.node[*].nic.phy80211p.antennaOffsetY = 0 m
*.node[*].nic.phy80211p.antennaOffsetZ = 1.895 m

##########################################################
#                      App Layer                         #
##########################################################
#*.node[*].applType = "MyVeinsApp"
*.node[*].appl.headerLength = 80 bit
*.node[*].appl.sendBeacons = false
*.node[*].appl.dataOnSch = false
*.node[*].appl.beaconInterval = 1s
*.node[*].appl.beaconLengthBits = 128 bit
#*.node[*].appl.taskInfoInterval = 3s


##########################################################
#                      Mobility                          #
##########################################################
*.node[*].veinsmobility.x = 0
*.node[*].veinsmobility.y = 0
*.node[*].veinsmobility.z = 0
*.node[*].veinsmobility.setHostSpeed = false
#*.node[*0].veinsmobility.accidentCount = 1
#*.node[*0].veinsmobility.accidentStart = 73s
#*.node[*0].veinsmobility.accidentDuration = 50s

#*.**.nic.mac1609_4.useServiceChannel = true
#*.node[*].appl.dataOnSch = true
#*.RSU[*].appl.dataOnSch = true


[Config Default]

#[Config WithBeaconing]
#*.RSU[*].appl.sendBeacons = true
#*.node[*].appl.sendBeacons = true

#[Config WithChannelSwitching]
#*.**.nic.mac1609_4.useServiceChannel = true
#*.node[*].appl.dataOnSch = true
#*.RSU[*].appl.dataOnSch = true

